* File: adder.pex.sp.pex
* Created: Fri Nov  8 13:28:07 2024
* Program "Calibre xRC"
* Version "v2022.3_33.19"
* Nominal Temperature: 27C
* Circuit Temperature: 27C
* 
.subckt PM_ADDER%S1 6 17 21
c0 10 0 0.495917f
c1 6 0 0.0808059f
r2 21 23 4.815
r3 17 19 2.4075
r4 15 19 5.44423
r5 13 15 0.207667
r6 10 23 8.16635
r7 10 13 0.156333
r8 3 13 8
r9 3 6 0.0839583
.ends

.subckt PM_ADDER%S2 6 17 21
c0 10 0 0.495917f
c1 6 0 0.0808059f
r2 21 23 4.815
r3 17 19 2.4075
r4 15 19 5.44423
r5 13 15 0.207667
r6 10 23 8.16635
r7 10 13 0.156333
r8 3 13 8
r9 3 6 0.0839583
.ends

.subckt PM_ADDER%S3 6 17 21
c0 10 0 0.495917f
c1 6 0 0.0808059f
r2 21 23 4.815
r3 17 19 2.4075
r4 15 19 5.44423
r5 13 15 0.207667
r6 10 23 8.16635
r7 10 13 0.156333
r8 3 13 8
r9 3 6 0.0839583
.ends

.subckt PM_ADDER%COUT 6 17 21
c0 10 0 0.495917f
c1 6 0 0.0808059f
r2 21 23 4.815
r3 17 19 2.4075
r4 15 19 5.44423
r5 13 15 0.207667
r6 10 23 8.16635
r7 10 13 0.156333
r8 3 13 8
r9 3 6 0.0839583
.ends

.subckt PM_ADDER%S4 6 17 21
c0 10 0 0.495917f
c1 6 0 0.0808059f
r2 21 23 4.815
r3 17 19 2.4075
r4 15 19 5.44423
r5 13 15 0.207667
r6 10 23 8.16635
r7 10 13 0.156333
r8 3 13 8
r9 3 6 0.0839583
.ends

.subckt PM_ADDER%A1 3 14 22 30 36 42 48 54 58
c0 66 0 0.0111496f
c1 65 0 0.0111497f
c2 64 0 0.0111496f
c3 63 0 0.0111496f
c4 62 0 0.0396147f
c5 61 0 0.0111496f
c6 60 0 0.0111496f
c7 58 0 0.181265f
c8 54 0 0.364937f
c9 50 0 2.00428f
c10 48 0 0.187796f
c11 44 0 2.34711f
c12 42 0 0.364121f
c13 38 0 2.8627f
c14 36 0 0.364937f
c15 32 0 3.55262f
c16 30 0 0.186988f
c17 26 0 2.75277f
c18 24 0 2.65218f
c19 22 0 0.133093f
c20 19 0 0.0772215f
c21 17 0 5.58167f
c22 14 0 0.213448f
c23 8 0 0.129463f
c24 6 0 0.120211f
r25 56 58 66
r26 52 54 166
r27 51 66 3.81101
r28 50 56 5.02856
r29 50 51 891
r30 46 66 0.990414
r31 46 48 66
r32 45 65 3.81101
r33 44 52 5.02856
r34 44 45 1071
r35 40 65 0.990414
r36 40 42 166
r37 39 64 3.81101
r38 38 65 3.81101
r39 38 39 1321
r40 34 64 0.990414
r41 34 36 166
r42 33 63 3.81101
r43 32 66 3.81101
r44 32 33 1616
r45 28 63 0.990414
r46 28 30 66
r47 27 61 0.990414
r48 26 64 3.81101
r49 26 27 1266
r50 25 60 0.990414
r51 24 63 3.81101
r52 24 25 1206
r53 20 62 8.96832
r54 20 22 65
r55 19 62 8.96832
r56 18 61 3.81101
r57 18 19 36
r58 17 61 3.81101
r59 16 60 3.81101
r60 16 17 2595
r61 12 60 3.81101
r62 12 14 81
r63 8 62 1.75991
r64 8 10 7.26
r65 6 10 13.2552
r66 3 6 0.0368667
.ends

.subckt PM_ADDER%VDD 63 71 77 85 91 99 115 119 123 129 137 143 149 157 165 173
+ 179 187 193 201 217 221 225 231 239 245 251 259 267 275 281 289 295 303 319
+ 323 327 333 341 347 353 361 369 377 383 391 397 405 421 425 429 435 443 449
+ 455 463 593 594 595 596 597 598 599 600 601 602 603 604 605 606 607 608 609
+ 610 611 612 613 614 615 616 617 618 619 620 621 622 623 624 625 626 627 628
+ 629 630 631 632 633 634 635 636 637 638 639 640 641 642 643 644 645 646 647
+ 648 705 709 713 717 721 725 729 733 737 741 745 749 753 757 761 765 769 773
+ 777 781 785 789 793 797 801 805 809 813 817 821 825 829 833 837 841 845
c0 463 0 0.146951f
c1 459 0 0.267856f
c2 457 0 0.0528488f
c3 455 0 0.253581f
c4 449 0 0.254009f
c5 443 0 0.147461f
c6 439 0 0.215287f
c7 437 0 0.0528488f
c8 435 0 0.252605f
c9 429 0 0.147461f
c10 425 0 0.147462f
c11 421 0 0.147461f
c12 417 0 0.215287f
c13 415 0 0.0528488f
c14 413 0 0.215287f
c15 411 0 0.0528492f
c16 409 0 0.215288f
c17 407 0 0.0528488f
c18 405 0 0.146951f
c19 401 0 0.267856f
c20 399 0 0.0528488f
c21 397 0 0.255295f
c22 391 0 0.147461f
c23 387 0 0.215287f
c24 385 0 0.0528488f
c25 383 0 0.250202f
c26 377 0 0.151759f
c27 373 0 0.267856f
c28 371 0 0.0528488f
c29 369 0 0.147177f
c30 365 0 0.267856f
c31 363 0 0.0528488f
c32 361 0 0.146951f
c33 357 0 0.267856f
c34 355 0 0.0528488f
c35 353 0 0.253581f
c36 347 0 0.254009f
c37 341 0 0.147461f
c38 337 0 0.215287f
c39 335 0 0.0528488f
c40 333 0 0.252605f
c41 327 0 0.147461f
c42 323 0 0.147462f
c43 319 0 0.147461f
c44 315 0 0.215287f
c45 313 0 0.0528488f
c46 311 0 0.215287f
c47 309 0 0.0528492f
c48 307 0 0.215288f
c49 305 0 0.0528488f
c50 303 0 0.146951f
c51 299 0 0.267856f
c52 297 0 0.0528488f
c53 295 0 0.255295f
c54 289 0 0.147461f
c55 285 0 0.215287f
c56 283 0 0.0528488f
c57 281 0 0.250202f
c58 275 0 0.151759f
c59 271 0 0.267856f
c60 269 0 0.0528488f
c61 267 0 0.147177f
c62 263 0 0.267856f
c63 261 0 0.0528488f
c64 259 0 0.146951f
c65 255 0 0.267856f
c66 253 0 0.0528488f
c67 251 0 0.253581f
c68 245 0 0.254009f
c69 239 0 0.147461f
c70 235 0 0.215287f
c71 233 0 0.0528488f
c72 231 0 0.252605f
c73 225 0 0.147461f
c74 221 0 0.147462f
c75 217 0 0.147461f
c76 213 0 0.215287f
c77 211 0 0.0528488f
c78 209 0 0.215287f
c79 207 0 0.0528492f
c80 205 0 0.215288f
c81 203 0 0.0528488f
c82 201 0 0.146951f
c83 197 0 0.267856f
c84 195 0 0.0528488f
c85 193 0 0.255295f
c86 187 0 0.147461f
c87 183 0 0.215287f
c88 181 0 0.0528488f
c89 179 0 0.250202f
c90 173 0 0.151759f
c91 169 0 0.267856f
c92 167 0 0.0528488f
c93 165 0 0.147177f
c94 161 0 0.267856f
c95 159 0 0.0528488f
c96 157 0 0.146951f
c97 153 0 0.267856f
c98 151 0 0.0528488f
c99 149 0 0.253581f
c100 143 0 0.254009f
c101 137 0 0.147461f
c102 133 0 0.215287f
c103 131 0 0.0528488f
c104 129 0 0.252605f
c105 123 0 0.147461f
c106 119 0 0.147462f
c107 115 0 0.147461f
c108 111 0 0.215287f
c109 109 0 0.0528488f
c110 107 0 0.215287f
c111 105 0 0.0528492f
c112 103 0 0.215288f
c113 101 0 0.0528488f
c114 99 0 0.146951f
c115 95 0 0.267856f
c116 93 0 0.0528488f
c117 91 0 0.255295f
c118 85 0 0.147461f
c119 81 0 0.215287f
c120 79 0 0.0528488f
c121 77 0 0.250431f
c122 71 0 0.151759f
c123 67 0 0.267856f
c124 65 0 0.0528488f
c125 63 0 0.147177f
c126 59 0 0.267856f
c127 57 0 0.0528488f
r128 845 847 2.1825
r129 841 843 2.1825
r130 837 839 2.1825
r131 833 835 2.1825
r132 829 831 2.1825
r133 825 827 2.1825
r134 821 823 2.1825
r135 817 819 2.1825
r136 813 815 2.1825
r137 809 811 2.1825
r138 805 807 2.1825
r139 801 803 2.1825
r140 797 799 2.1825
r141 793 795 2.1825
r142 789 791 2.1825
r143 785 787 2.1825
r144 781 783 2.1825
r145 777 779 2.1825
r146 773 775 2.1825
r147 769 771 2.1825
r148 765 767 2.1825
r149 761 763 2.1825
r150 757 759 2.1825
r151 753 755 2.1825
r152 749 751 2.1825
r153 745 747 2.1825
r154 741 743 2.1825
r155 737 739 2.1825
r156 733 735 2.1825
r157 729 731 2.1825
r158 725 727 2.1825
r159 721 723 2.1825
r160 717 719 2.178
r161 713 715 2.178
r162 709 711 2.178
r163 705 707 2.178
r164 648 1183 0.175
r165 647 1177 0.175
r166 646 1171 0.175
r167 645 1165 0.175
r168 644 1159 0.175
r169 643 1153 0.175
r170 642 1147 0.175
r171 641 1141 0.175
r172 640 1135 0.175
r173 639 1129 0.175
r174 638 1123 0.175
r175 637 1117 0.175
r176 636 1111 0.175
r177 635 1105 0.175
r178 634 1099 0.175
r179 633 1093 0.175
r180 632 1087 0.175
r181 631 1081 0.175
r182 630 1075 0.175
r183 629 1069 0.175
r184 628 1063 0.175
r185 627 1057 0.175
r186 626 1051 0.175
r187 625 1045 0.175
r188 624 1039 0.175
r189 623 1033 0.175
r190 622 1027 0.175
r191 621 1021 0.175
r192 620 1015 0.175
r193 619 1009 0.175
r194 618 1003 0.175
r195 617 997 0.175
r196 616 991 0.175
r197 615 985 0.175
r198 614 979 0.175
r199 613 973 0.175
r200 612 967 0.175
r201 611 961 0.175
r202 610 955 0.175
r203 609 949 0.175
r204 608 943 0.175
r205 607 937 0.175
r206 606 931 0.175
r207 605 925 0.175
r208 604 919 0.175
r209 603 913 0.175
r210 602 907 0.175
r211 601 901 0.175
r212 600 895 0.175
r213 599 889 0.175
r214 598 883 0.175
r215 597 877 0.175
r216 596 871 0.175
r217 595 865 0.175
r218 594 859 0.175
r219 593 853 0.175
r220 536 1183 8.16635
r221 534 1165 8.16635
r222 532 1153 8.16635
r223 530 1147 8.16635
r224 528 1141 8.16635
r225 526 1135 8.16635
r226 524 1123 8.16635
r227 522 1111 8.16635
r228 520 1105 8.16635
r229 518 1099 8.16635
r230 516 1081 8.16635
r231 514 1069 8.16635
r232 512 1063 8.16635
r233 510 1057 8.16635
r234 508 1051 8.16635
r235 506 1039 8.16635
r236 504 1027 8.16635
r237 502 1021 8.16635
r238 500 1015 8.16635
r239 498 997 8.16635
r240 496 985 8.16635
r241 494 979 8.16635
r242 492 973 8.16635
r243 490 967 8.16635
r244 488 955 8.16635
r245 486 943 8.16635
r246 484 937 8.16635
r247 482 931 8.16635
r248 480 913 8.16635
r249 478 901 8.16635
r250 476 895 8.16635
r251 474 889 8.16635
r252 472 883 8.16635
r253 470 871 8.16635
r254 468 859 8.16635
r255 466 853 8.16635
r256 461 536 0.0164723
r257 461 463 0.0855556
r258 459 847 5.44423
r259 457 536 0.0247085
r260 457 459 0.139417
r261 452 1177 8.16635
r262 452 455 0.107722
r263 446 1171 8.16635
r264 446 449 0.107722
r265 441 534 0.0164723
r266 441 443 0.0855556
r267 439 843 5.44423
r268 437 534 0.0247085
r269 437 439 0.139417
r270 432 1159 8.16635
r271 432 435 0.107722
r272 427 532 0.0164723
r273 427 429 0.0855556
r274 423 530 0.0164723
r275 423 425 0.0855556
r276 419 528 0.0164723
r277 419 421 0.0855556
r278 417 839 5.44423
r279 415 532 0.0247085
r280 415 417 0.139417
r281 413 835 5.44423
r282 411 530 0.0247085
r283 411 413 0.139417
r284 409 831 5.44423
r285 407 528 0.0247085
r286 407 409 0.139417
r287 403 526 0.0164723
r288 403 405 0.0855556
r289 401 827 5.44423
r290 399 526 0.0247085
r291 399 401 0.1393
r292 394 1129 8.16635
r293 394 397 0.107722
r294 389 524 0.0164723
r295 389 391 0.0777778
r296 387 823 5.44423
r297 385 524 0.0247085
r298 385 387 0.139417
r299 380 1117 8.16635
r300 380 383 0.0999444
r301 375 522 0.0164723
r302 375 377 0.0855556
r303 373 819 5.44423
r304 371 522 0.0247085
r305 371 373 0.139417
r306 367 520 0.0164723
r307 367 369 0.0855556
r308 365 815 5.44423
r309 363 520 0.0247085
r310 363 365 0.139417
r311 359 518 0.0164723
r312 359 361 0.0855556
r313 357 811 5.44423
r314 355 518 0.0247085
r315 355 357 0.139417
r316 350 1093 8.16635
r317 350 353 0.107722
r318 344 1087 8.16635
r319 344 347 0.107722
r320 339 516 0.0164723
r321 339 341 0.0855556
r322 337 807 5.44423
r323 335 516 0.0247085
r324 335 337 0.139417
r325 330 1075 8.16635
r326 330 333 0.107722
r327 325 514 0.0164723
r328 325 327 0.0855556
r329 321 512 0.0164723
r330 321 323 0.0855556
r331 317 510 0.0164723
r332 317 319 0.0855556
r333 315 803 5.44423
r334 313 514 0.0247085
r335 313 315 0.139417
r336 311 799 5.44423
r337 309 512 0.0247085
r338 309 311 0.139417
r339 307 795 5.44423
r340 305 510 0.0247085
r341 305 307 0.139417
r342 301 508 0.0164723
r343 301 303 0.0855556
r344 299 791 5.44423
r345 297 508 0.0247085
r346 297 299 0.1393
r347 292 1045 8.16635
r348 292 295 0.107722
r349 287 506 0.0164723
r350 287 289 0.0777778
r351 285 787 5.44423
r352 283 506 0.0247085
r353 283 285 0.139417
r354 278 1033 8.16635
r355 278 281 0.0999444
r356 273 504 0.0164723
r357 273 275 0.0855556
r358 271 783 5.44423
r359 269 504 0.0247085
r360 269 271 0.139417
r361 265 502 0.0164723
r362 265 267 0.0855556
r363 263 779 5.44423
r364 261 502 0.0247085
r365 261 263 0.139417
r366 257 500 0.0164723
r367 257 259 0.0855556
r368 255 775 5.44423
r369 253 500 0.0247085
r370 253 255 0.139417
r371 248 1009 8.16635
r372 248 251 0.107722
r373 242 1003 8.16635
r374 242 245 0.107722
r375 237 498 0.0164723
r376 237 239 0.0855556
r377 235 771 5.44423
r378 233 498 0.0247085
r379 233 235 0.139417
r380 228 991 8.16635
r381 228 231 0.107722
r382 223 496 0.0164723
r383 223 225 0.0855556
r384 219 494 0.0164723
r385 219 221 0.0855556
r386 215 492 0.0164723
r387 215 217 0.0855556
r388 213 767 5.44423
r389 211 496 0.0247085
r390 211 213 0.139417
r391 209 763 5.44423
r392 207 494 0.0247085
r393 207 209 0.139417
r394 205 759 5.44423
r395 203 492 0.0247085
r396 203 205 0.139417
r397 199 490 0.0164723
r398 199 201 0.0855556
r399 197 755 5.44423
r400 195 490 0.0247085
r401 195 197 0.1393
r402 190 961 8.16635
r403 190 193 0.107722
r404 185 488 0.0164723
r405 185 187 0.0777778
r406 183 751 5.44423
r407 181 488 0.0247085
r408 181 183 0.139417
r409 176 949 8.16635
r410 176 179 0.0999444
r411 171 486 0.0164723
r412 171 173 0.0855556
r413 169 747 5.44423
r414 167 486 0.0247085
r415 167 169 0.139417
r416 163 484 0.0164723
r417 163 165 0.0855556
r418 161 743 5.44423
r419 159 484 0.0247085
r420 159 161 0.139417
r421 155 482 0.0164723
r422 155 157 0.0855556
r423 153 739 5.44423
r424 151 482 0.0247085
r425 151 153 0.139417
r426 146 925 8.16635
r427 146 149 0.107722
r428 140 919 8.16635
r429 140 143 0.107722
r430 135 480 0.0164723
r431 135 137 0.0855556
r432 133 735 5.44423
r433 131 480 0.0247085
r434 131 133 0.139417
r435 126 907 8.16635
r436 126 129 0.107722
r437 121 478 0.0164723
r438 121 123 0.0855556
r439 117 476 0.0164723
r440 117 119 0.0855556
r441 113 474 0.0164723
r442 113 115 0.0855556
r443 111 731 5.44423
r444 109 478 0.0247085
r445 109 111 0.139417
r446 107 727 5.44423
r447 105 476 0.0247085
r448 105 107 0.139417
r449 103 723 5.44423
r450 101 474 0.0247085
r451 101 103 0.139417
r452 97 472 0.0164723
r453 97 99 0.0855556
r454 95 719 5.44423
r455 93 472 0.0247085
r456 93 95 0.1393
r457 88 877 8.16635
r458 88 91 0.107644
r459 83 470 0.0164723
r460 83 85 0.0777778
r461 81 715 5.44423
r462 79 470 0.0247085
r463 79 81 0.139417
r464 74 865 8.16635
r465 74 77 0.0998667
r466 69 468 0.0164723
r467 69 71 0.0855556
r468 67 711 5.44423
r469 65 468 0.0247085
r470 65 67 0.139417
r471 61 466 0.0164723
r472 61 63 0.0855556
r473 59 707 5.44423
r474 57 466 0.0247085
r475 57 59 0.139417
.ends

.subckt PM_ADDER%GND 63 71 77 85 91 99 115 119 123 129 137 143 149 157 165 173
+ 179 187 193 201 217 221 225 231 239 245 251 259 267 275 281 289 295 303 319
+ 323 327 333 341 347 353 361 369 377 383 391 397 405 421 425 429 435 443 449
+ 455 463 538 986 990 994 998 1002 1006 1010 1014 1018 1022 1026 1030 1034 1038
+ 1042 1046 1050 1054 1058 1062 1066 1070 1074 1078 1082 1086 1090 1094 1098
+ 1102 1106 1110 1114 1118 1122 1126
c0 463 0 0.120948f
c1 459 0 0.228383f
c2 457 0 0.0515569f
c3 455 0 0.22605f
c4 449 0 0.219456f
c5 443 0 0.120937f
c6 439 0 0.161694f
c7 437 0 0.0493255f
c8 435 0 0.215169f
c9 429 0 0.123036f
c10 425 0 0.123036f
c11 421 0 0.120941f
c12 417 0 0.161747f
c13 415 0 0.0493255f
c14 413 0 0.161694f
c15 411 0 0.0493255f
c16 409 0 0.161694f
c17 407 0 0.0493255f
c18 405 0 0.120948f
c19 401 0 0.223816f
c20 399 0 0.0493255f
c21 397 0 0.219063f
c22 391 0 0.120941f
c23 387 0 0.176063f
c24 385 0 0.0567567f
c25 383 0 0.220056f
c26 377 0 0.12417f
c27 373 0 0.160942f
c28 371 0 0.0493255f
c29 369 0 0.120938f
c30 365 0 0.160942f
c31 363 0 0.0493255f
c32 361 0 0.120948f
c33 357 0 0.228383f
c34 355 0 0.0515569f
c35 353 0 0.22605f
c36 347 0 0.219456f
c37 341 0 0.120937f
c38 337 0 0.161694f
c39 335 0 0.0493255f
c40 333 0 0.215169f
c41 327 0 0.123036f
c42 323 0 0.123036f
c43 319 0 0.120941f
c44 315 0 0.161747f
c45 313 0 0.0493255f
c46 311 0 0.161694f
c47 309 0 0.0493255f
c48 307 0 0.161694f
c49 305 0 0.0493255f
c50 303 0 0.12094f
c51 299 0 0.223816f
c52 297 0 0.0493255f
c53 295 0 0.219063f
c54 289 0 0.120941f
c55 285 0 0.176063f
c56 283 0 0.0567567f
c57 281 0 0.220056f
c58 275 0 0.12417f
c59 271 0 0.160942f
c60 269 0 0.0493255f
c61 267 0 0.120938f
c62 263 0 0.160942f
c63 261 0 0.0493255f
c64 259 0 0.120948f
c65 255 0 0.228383f
c66 253 0 0.0515569f
c67 251 0 0.22605f
c68 245 0 0.219456f
c69 239 0 0.120937f
c70 235 0 0.161694f
c71 233 0 0.0493255f
c72 231 0 0.215169f
c73 225 0 0.123036f
c74 221 0 0.123036f
c75 217 0 0.120941f
c76 213 0 0.161747f
c77 211 0 0.0493255f
c78 209 0 0.161694f
c79 207 0 0.0493255f
c80 205 0 0.161694f
c81 203 0 0.0493255f
c82 201 0 0.12094f
c83 197 0 0.223816f
c84 195 0 0.0493255f
c85 193 0 0.219063f
c86 187 0 0.120941f
c87 183 0 0.176063f
c88 181 0 0.0567567f
c89 179 0 0.220056f
c90 173 0 0.12417f
c91 169 0 0.160942f
c92 167 0 0.0493255f
c93 165 0 0.120938f
c94 161 0 0.160942f
c95 159 0 0.0493255f
c96 157 0 0.120948f
c97 153 0 0.228383f
c98 151 0 0.0515569f
c99 149 0 0.22605f
c100 143 0 0.219456f
c101 137 0 0.120937f
c102 133 0 0.161694f
c103 131 0 0.0493255f
c104 129 0 0.215169f
c105 123 0 0.123036f
c106 119 0 0.123036f
c107 115 0 0.120941f
c108 111 0 0.161747f
c109 109 0 0.0493255f
c110 107 0 0.161694f
c111 105 0 0.0493255f
c112 103 0 0.161694f
c113 101 0 0.0493255f
c114 99 0 0.12094f
c115 95 0 0.223816f
c116 93 0 0.0493255f
c117 91 0 0.219063f
c118 85 0 0.120941f
c119 81 0 0.176063f
c120 79 0 0.0567567f
c121 77 0 0.220056f
c122 71 0 0.12417f
c123 67 0 0.160942f
c124 65 0 0.0493255f
c125 63 0 0.120938f
c126 59 0 0.160942f
c127 57 0 0.0493255f
r128 1126 1128 4.365
r129 1122 1124 4.365
r130 1118 1120 4.365
r131 1114 1116 4.365
r132 1110 1112 4.365
r133 1106 1108 4.365
r134 1102 1104 4.365
r135 1098 1100 4.365
r136 1094 1096 4.365
r137 1090 1092 4.365
r138 1086 1088 4.365
r139 1082 1084 4.365
r140 1078 1080 4.365
r141 1074 1076 4.365
r142 1070 1072 4.365
r143 1066 1068 4.365
r144 1062 1064 4.365
r145 1058 1060 4.365
r146 1054 1056 4.365
r147 1050 1052 4.365
r148 1046 1048 4.365
r149 1042 1044 4.365
r150 1038 1040 4.365
r151 1034 1036 4.365
r152 1030 1032 4.365
r153 1026 1028 4.365
r154 1022 1024 4.365
r155 1018 1020 4.365
r156 1014 1016 4.365
r157 1010 1012 4.365
r158 1006 1008 4.365
r159 1002 1004 4.365
r160 998 1000 4.356
r161 994 996 4.356
r162 990 992 4.356
r163 986 988 4.356
r164 538 984 0.175
r165 538 978 0.175
r166 538 972 0.175
r167 538 966 0.175
r168 538 960 0.175
r169 538 954 0.175
r170 538 948 0.175
r171 538 942 0.175
r172 538 936 0.175
r173 538 930 0.175
r174 538 924 0.175
r175 538 918 0.175
r176 538 912 0.175
r177 538 906 0.175
r178 538 900 0.175
r179 538 894 0.175
r180 538 888 0.175
r181 538 882 0.175
r182 538 876 0.175
r183 538 870 0.175
r184 538 864 0.175
r185 538 858 0.175
r186 538 852 0.175
r187 538 846 0.175
r188 538 840 0.175
r189 538 834 0.175
r190 538 828 0.175
r191 538 822 0.175
r192 538 816 0.175
r193 538 810 0.175
r194 538 804 0.175
r195 538 798 0.175
r196 538 792 0.175
r197 538 786 0.175
r198 538 780 0.175
r199 538 774 0.175
r200 538 768 0.175
r201 538 762 0.175
r202 538 756 0.175
r203 538 750 0.175
r204 538 744 0.175
r205 538 738 0.175
r206 538 732 0.175
r207 538 726 0.175
r208 538 720 0.175
r209 538 714 0.175
r210 538 708 0.175
r211 538 702 0.175
r212 538 696 0.175
r213 538 690 0.175
r214 538 684 0.175
r215 538 678 0.175
r216 538 672 0.175
r217 538 666 0.175
r218 538 660 0.175
r219 538 654 0.175
r220 536 984 8.16635
r221 534 966 8.16635
r222 532 954 8.16635
r223 530 948 8.16635
r224 528 942 8.16635
r225 526 936 8.16635
r226 524 924 8.16635
r227 522 912 8.16635
r228 520 906 8.16635
r229 518 900 8.16635
r230 516 882 8.16635
r231 514 870 8.16635
r232 512 864 8.16635
r233 510 858 8.16635
r234 508 852 8.16635
r235 506 840 8.16635
r236 504 828 8.16635
r237 502 822 8.16635
r238 500 816 8.16635
r239 498 798 8.16635
r240 496 786 8.16635
r241 494 780 8.16635
r242 492 774 8.16635
r243 490 768 8.16635
r244 488 756 8.16635
r245 486 744 8.16635
r246 484 738 8.16635
r247 482 732 8.16635
r248 480 714 8.16635
r249 478 702 8.16635
r250 476 696 8.16635
r251 474 690 8.16635
r252 472 684 8.16635
r253 470 672 8.16635
r254 468 660 8.16635
r255 466 654 8.16635
r256 461 536 0.0195555
r257 461 463 0.09
r258 459 1128 8.16635
r259 457 536 0.0195555
r260 457 459 0.0885
r261 452 978 8.16635
r262 452 455 0.1285
r263 446 972 8.16635
r264 446 449 0.1385
r265 441 534 0.0195555
r266 441 443 0.1
r267 439 1124 8.16635
r268 437 534 0.0195555
r269 437 439 0.0885
r270 432 960 8.16635
r271 432 435 0.1285
r272 427 532 0.0195555
r273 427 429 0.1
r274 423 530 0.0195555
r275 423 425 0.1
r276 419 528 0.0195555
r277 419 421 0.1
r278 417 1120 8.16635
r279 415 532 0.0195555
r280 415 417 0.0885
r281 413 1116 8.16635
r282 411 530 0.0195555
r283 411 413 0.0885
r284 409 1112 8.16635
r285 407 528 0.0195555
r286 407 409 0.0885
r287 403 526 0.0195555
r288 403 405 0.1
r289 401 1108 8.16635
r290 399 526 0.0195555
r291 399 401 0.0886
r292 394 930 8.16635
r293 394 397 0.1385
r294 389 524 0.0195555
r295 389 391 0.1
r296 387 1104 8.16635
r297 385 524 0.0195555
r298 385 387 0.0885
r299 380 918 8.16635
r300 380 383 0.0985
r301 375 522 0.0195555
r302 375 377 0.1
r303 373 1100 8.16635
r304 371 522 0.0195555
r305 371 373 0.0885
r306 367 520 0.0195555
r307 367 369 0.1
r308 365 1096 8.16635
r309 363 520 0.0195555
r310 363 365 0.0885
r311 359 518 0.0195555
r312 359 361 0.09
r313 357 1092 8.16635
r314 355 518 0.0195555
r315 355 357 0.0885
r316 350 894 8.16635
r317 350 353 0.1285
r318 344 888 8.16635
r319 344 347 0.1385
r320 339 516 0.0195555
r321 339 341 0.1
r322 337 1088 8.16635
r323 335 516 0.0195555
r324 335 337 0.0885
r325 330 876 8.16635
r326 330 333 0.1285
r327 325 514 0.0195555
r328 325 327 0.1
r329 321 512 0.0195555
r330 321 323 0.1
r331 317 510 0.0195555
r332 317 319 0.1
r333 315 1084 8.16635
r334 313 514 0.0195555
r335 313 315 0.0885
r336 311 1080 8.16635
r337 309 512 0.0195555
r338 309 311 0.0885
r339 307 1076 8.16635
r340 305 510 0.0195555
r341 305 307 0.0885
r342 301 508 0.0195555
r343 301 303 0.1
r344 299 1072 8.16635
r345 297 508 0.0195555
r346 297 299 0.0886
r347 292 846 8.16635
r348 292 295 0.1385
r349 287 506 0.0195555
r350 287 289 0.1
r351 285 1068 8.16635
r352 283 506 0.0195555
r353 283 285 0.0885
r354 278 834 8.16635
r355 278 281 0.0985
r356 273 504 0.0195555
r357 273 275 0.1
r358 271 1064 8.16635
r359 269 504 0.0195555
r360 269 271 0.0885
r361 265 502 0.0195555
r362 265 267 0.1
r363 263 1060 8.16635
r364 261 502 0.0195555
r365 261 263 0.0885
r366 257 500 0.0195555
r367 257 259 0.09
r368 255 1056 8.16635
r369 253 500 0.0195555
r370 253 255 0.0885
r371 248 810 8.16635
r372 248 251 0.1285
r373 242 804 8.16635
r374 242 245 0.1385
r375 237 498 0.0195555
r376 237 239 0.1
r377 235 1052 8.16635
r378 233 498 0.0195555
r379 233 235 0.0885
r380 228 792 8.16635
r381 228 231 0.1285
r382 223 496 0.0195555
r383 223 225 0.1
r384 219 494 0.0195555
r385 219 221 0.1
r386 215 492 0.0195555
r387 215 217 0.1
r388 213 1048 8.16635
r389 211 496 0.0195555
r390 211 213 0.0885
r391 209 1044 8.16635
r392 207 494 0.0195555
r393 207 209 0.0885
r394 205 1040 8.16635
r395 203 492 0.0195555
r396 203 205 0.0885
r397 199 490 0.0195555
r398 199 201 0.1
r399 197 1036 8.16635
r400 195 490 0.0195555
r401 195 197 0.0886
r402 190 762 8.16635
r403 190 193 0.1385
r404 185 488 0.0195555
r405 185 187 0.1
r406 183 1032 8.16635
r407 181 488 0.0195555
r408 181 183 0.0885
r409 176 750 8.16635
r410 176 179 0.0985
r411 171 486 0.0195555
r412 171 173 0.1
r413 169 1028 8.16635
r414 167 486 0.0195555
r415 167 169 0.0885
r416 163 484 0.0195555
r417 163 165 0.1
r418 161 1024 8.16635
r419 159 484 0.0195555
r420 159 161 0.0885
r421 155 482 0.0195555
r422 155 157 0.09
r423 153 1020 8.16635
r424 151 482 0.0195555
r425 151 153 0.0885
r426 146 726 8.16635
r427 146 149 0.1285
r428 140 720 8.16635
r429 140 143 0.1385
r430 135 480 0.0195555
r431 135 137 0.1
r432 133 1016 8.16635
r433 131 480 0.0195555
r434 131 133 0.0885
r435 126 708 8.16635
r436 126 129 0.1285
r437 121 478 0.0195555
r438 121 123 0.1
r439 117 476 0.0195555
r440 117 119 0.1
r441 113 474 0.0195555
r442 113 115 0.1
r443 111 1012 8.16635
r444 109 478 0.0195555
r445 109 111 0.0885
r446 107 1008 8.16635
r447 105 476 0.0195555
r448 105 107 0.0885
r449 103 1004 8.16635
r450 101 474 0.0195555
r451 101 103 0.0885
r452 97 472 0.0195555
r453 97 99 0.1
r454 95 1000 8.16635
r455 93 472 0.0195555
r456 93 95 0.0886
r457 88 678 8.16635
r458 88 91 0.1384
r459 83 470 0.0195555
r460 83 85 0.1
r461 81 996 8.16635
r462 79 470 0.0195555
r463 79 81 0.0885
r464 74 666 8.16635
r465 74 77 0.0984
r466 69 468 0.0195555
r467 69 71 0.1
r468 67 992 8.16635
r469 65 468 0.0195555
r470 65 67 0.0885
r471 61 466 0.0195555
r472 61 63 0.1
r473 59 988 8.16635
r474 57 466 0.0195555
r475 57 59 0.0885
.ends

.subckt PM_ADDER%B1 3 14 22 30 34 42 48 54 58
c0 66 0 0.0111496f
c1 65 0 0.0111496f
c2 64 0 0.0111496f
c3 63 0 0.0111496f
c4 62 0 0.039615f
c5 61 0 0.0111496f
c6 60 0 0.0111496f
c7 58 0 0.176659f
c8 54 0 0.362335f
c9 50 0 2.7745f
c10 48 0 0.181265f
c11 44 0 3.18664f
c12 42 0 0.364937f
c13 38 0 2.06972f
c14 36 0 2.65576f
c15 34 0 0.363152f
c16 30 0 0.182604f
c17 26 0 2.75581f
c18 24 0 2.77081f
c19 22 0 0.133094f
c20 19 0 0.0234463f
c21 17 0 3.73181f
c22 14 0 0.374856f
c23 8 0 0.129463f
c24 6 0 0.120211f
r25 56 58 66
r26 52 54 166
r27 51 66 3.81101
r28 50 56 5.02856
r29 50 51 1266
r30 46 66 0.990414
r31 46 48 66
r32 45 65 3.81101
r33 44 52 5.02856
r34 44 45 1461
r35 40 65 0.990414
r36 40 42 166
r37 39 64 3.81101
r38 38 65 3.81101
r39 38 39 951
r40 37 63 3.81101
r41 36 66 3.81101
r42 36 37 1191
r43 32 64 0.990414
r44 32 34 166
r45 28 63 0.990414
r46 28 30 66
r47 27 61 0.990414
r48 26 64 3.81101
r49 26 27 1266
r50 25 60 0.990414
r51 24 63 3.81101
r52 24 25 1261
r53 20 62 8.96832
r54 20 22 65
r55 19 62 8.96832
r56 18 61 3.81101
r57 18 19 11
r58 17 61 3.81101
r59 16 60 3.81101
r60 16 17 1735
r61 12 60 3.81101
r62 12 14 156
r63 8 62 1.75991
r64 8 10 7.26
r65 6 10 13.2552
r66 3 6 0.0368667
.ends

.subckt PM_ADDER%D3 24 28 32
c0 23 0 0.0293767f
c1 19 0 0.14449f
c2 17 0 0.117315f
c3 12 0 0.719578f
c4 10 0 0.0921062f
c5 9 0 0.576595f
c6 7 0 0.641894f
c7 4 0 0.182089f
c8 2 0 0.998999f
r9 32 34 4.356
r10 28 30 4.824
r11 24 26 4.824
r12 19 30 8.16635
r13 19 21 0.05425
r14 15 26 8.16635
r15 15 17 0.0200808
r16 12 34 8.16635
r17 10 12 0.473286
r18 9 10 0.039111
r19 8 23 0.0164224
r20 8 9 0.407143
r21 7 23 0.0164224
r22 6 7 0.457857
r23 5 21 0.0103662
r24 4 23 0.0220686
r25 4 5 0.3094
r26 2 6 0.039111
r27 2 17 0.686429
.ends

.subckt PM_ADDER%CIN 3 14 22 30 36 42 46
c0 52 0 0.0133006f
c1 51 0 0.0111496f
c2 50 0 0.0412478f
c3 49 0 0.0111496f
c4 48 0 0.0111496f
c5 46 0 0.174519f
c6 42 0 0.351582f
c7 38 0 3.53773f
c8 36 0 0.179114f
c9 32 0 3.98271f
c10 30 0 0.354182f
c11 26 0 3.61904f
c12 24 0 4.12569f
c13 22 0 0.128756f
c14 19 0 0.163266f
c15 17 0 1.86261f
c16 14 0 0.338637f
c17 8 0 0.127893f
c18 6 0 0.121132f
r19 44 46 65
r20 40 42 161
r21 39 52 3.81101
r22 38 44 5.02856
r23 38 39 1621
r24 34 52 0.990414
r25 34 36 65
r26 33 51 3.81101
r27 32 40 5.02856
r28 32 33 1831
r29 28 51 0.990414
r30 28 30 161
r31 27 49 0.990414
r32 26 51 3.81101
r33 26 27 1661
r34 25 48 0.990414
r35 24 52 3.81101
r36 24 25 1896
r37 20 50 8.96832
r38 20 22 65
r39 19 50 8.96832
r40 18 49 3.81101
r41 18 19 76
r42 17 49 3.81101
r43 16 48 3.81101
r44 16 17 866
r45 12 48 3.81101
r46 12 14 140
r47 8 50 1.75991
r48 8 10 7.26
r49 6 10 13.2552
r50 3 6 0.0368667
.ends

.subckt PM_ADDER%D1 25 29 33
c0 24 0 0.0297798f
c1 22 0 0.147421f
c2 19 0 0.0509199f
c3 18 0 0.651863f
c4 17 0 0.747574f
c5 15 0 0.713621f
c6 13 0 0.0730469f
c7 12 0 0.184594f
c8 10 0 0.216555f
c9 7 0 0.0715262f
c10 6 0 0.862533f
c11 4 0 0.2383f
r12 33 35 2.178
r13 29 31 2.412
r14 25 27 2.412
r15 22 35 5.44423
r16 20 22 0.0239167
r17 18 20 0.039111
r18 18 19 0.793333
r19 16 24 0.0296412
r20 16 17 1.015
r21 15 24 0.0296412
r22 14 19 0.039111
r23 14 15 0.945
r24 12 24 0.00770322
r25 12 13 0.245
r26 10 31 5.44423
r27 8 13 0.039111
r28 8 10 0.140583
r29 6 17 0.039111
r30 6 7 1.10833
r31 4 27 5.44423
r32 2 7 0.039111
r33 2 4 0.140583
.ends

.subckt PM_ADDER%D5 14 18
c0 12 0 0.344942f
c1 10 0 0.0956146f
c2 9 0 0.678796f
c3 7 0 0.0957191f
c4 6 0 0.484201f
c5 4 0 0.11291f
r6 18 20 4.356
r7 14 16 4.824
r8 12 20 8.16635
r9 10 12 0.16212
r10 9 10 0.039111
r11 8 9 0.469
r12 6 8 0.039111
r13 6 7 0.259
r14 4 16 8.16635
r15 2 7 0.0423772
r16 2 4 0.0484167
.ends

.subckt PM_ADDER%D4 16 20
c0 14 0 0.17913f
c1 11 0 0.0320281f
c2 10 0 0.19571f
c3 9 0 0.622888f
c4 7 0 0.044291f
c5 6 0 0.280236f
c6 4 0 0.256857f
r7 20 22 2.178
r8 16 18 2.412
r9 14 22 5.44423
r10 12 14 0.08225
r11 10 12 0.0411808
r12 10 11 0.3675
r13 8 11 0.039111
r14 8 9 1.3475
r15 6 9 0.039111
r16 6 7 0.5425
r17 4 18 5.44423
r18 2 7 0.0411808
r19 2 4 0.163917
.ends

.subckt PM_ADDER%D2 50 54 58 62 72 75 83 86
c0 89 0 0.042064f
c1 88 0 0.042064f
c2 86 0 0.130491f
c3 81 0 0.123173f
c4 77 0 0.13668f
c5 75 0 0.133093f
c6 70 0 0.127779f
c7 66 0 0.136522f
c8 47 0 0.0297813f
c9 46 0 0.0148899f
c10 44 0 2.52795f
c11 42 0 0.0850194f
c12 41 0 1.33309f
c13 39 0 1.84274f
c14 37 0 0.0558637f
c15 36 0 0.45847f
c16 35 0 0.0623729f
c17 34 0 0.606312f
c18 32 0 0.247775f
c19 28 0 0.152754f
c20 24 0 1.4086f
c21 22 0 1.09228f
c22 20 0 0.0509193f
c23 19 0 0.88117f
c24 17 0 0.923727f
c25 15 0 2.16856f
c26 13 0 0.0814587f
c27 12 0 0.203645f
c28 11 0 0.0384912f
c29 10 0 0.13968f
c30 8 0 0.242229f
c31 4 0 0.128797f
r32 84 89 8.96832
r33 84 86 65
r34 81 89 8.96832
r35 81 83 40
r36 77 89 1.75991
r37 77 79 7.275
r38 73 88 8.96832
r39 73 75 65
r40 70 88 8.96832
r41 70 72 40
r42 66 88 1.75991
r43 66 68 7.26
r44 62 64 4.824
r45 58 60 4.824
r46 54 56 2.412
r47 50 52 2.412
r48 48 49 0.105
r49 44 79 13.2552
r50 42 49 0.035
r51 42 44 2.84842
r52 41 49 0.00411102
r53 40 41 1.76167
r54 38 48 0.00411102
r55 38 39 2.46167
r56 36 39 0.039111
r57 36 37 0.56
r58 34 40 0.039111
r59 34 35 0.676667
r60 32 56 5.44423
r61 30 37 0.039111
r62 30 32 0.15225
r63 28 64 8.16635
r64 26 35 0.039111
r65 26 28 0.0950833
r66 25 47 0.00770322
r67 24 48 0.035
r68 24 25 1.93667
r69 22 68 13.2552
r70 20 22 1.3552
r71 18 47 0.0296412
r72 18 19 1.17833
r73 17 47 0.0296412
r74 16 46 0.0161215
r75 16 17 1.23667
r76 15 46 0.0161215
r77 14 20 0.039111
r78 14 15 2.88167
r79 12 19 0.039111
r80 12 13 0.21
r81 10 46 0.0225096
r82 10 11 0.42
r83 8 52 5.44423
r84 6 13 0.039111
r85 6 8 0.163917
r86 4 60 8.16635
r87 2 11 0.0450476
r88 2 4 0.0834167
.ends

.subckt PM_ADDER%D8 28 32 36 40
c0 27 0 0.0496331f
c1 26 0 0.0496331f
c2 24 0 0.678973f
c3 22 0 0.117494f
c4 21 0 0.713614f
c5 19 0 0.487233f
c6 17 0 0.587938f
c7 15 0 0.0636824f
c8 14 0 0.325048f
c9 10 0 0.406687f
c10 6 0 0.406415f
c11 4 0 0.161118f
r12 40 42 4.365
r13 36 38 4.815
r14 32 34 4.815
r15 28 30 4.815
r16 24 42 8.16635
r17 22 24 0.243929
r18 21 22 0.0421276
r19 20 27 0.0442838
r20 20 21 0.945
r21 19 27 0.0442838
r22 18 26 0.0442838
r23 18 19 0.63
r24 17 26 0.0442838
r25 16 17 0.77
r26 14 16 0.039111
r27 14 15 0.326667
r28 12 38 8.16635
r29 10 27 0.00237544
r30 10 12 0.21595
r31 8 34 8.16635
r32 6 26 0.00237544
r33 6 8 0.21595
r34 4 30 8.16635
r35 2 15 0.039111
r36 2 4 0.10675
.ends

.subckt PM_ADDER%D6 32 36 40 44
c0 31 0 0.0297798f
c1 30 0 0.0297798f
c2 28 0 0.701266f
c3 26 0 0.141193f
c4 25 0 0.730093f
c5 23 0 0.917291f
c6 21 0 0.691395f
c7 19 0 0.0508777f
c8 18 0 0.69602f
c9 17 0 0.0558504f
c10 16 0 0.64522f
c11 15 0 0.0558637f
c12 14 0 0.645387f
c13 12 0 0.233682f
c14 8 0 0.2383f
c15 4 0 0.2383f
r16 44 46 2.1825
r17 40 42 2.4075
r18 36 38 2.4075
r19 32 34 2.4075
r20 28 46 5.44423
r21 26 28 0.128917